5 3
1.1
2.1
3.1
4.1
5.1
1 2 4
2 3 3.2
1 2 4
// expect
9.3
9.4

